%%%%%%%%%%%%%%%%%%%%%%%%%%%%%%%%%%%%%%%%%%%%%%%%%%%%%%%%%%%%%%%%%%%%%%%%%%%%%%%%
%                                                                              %
% SU2 configuration file                                                       %
% Case description: Mach 15 viscous, ionized flow over a cylinder              %
%                   using the Gupta-Yos transport model.                       %
%                                                                              %
%%%%%%%%%%%%%%%%%%%%%%%%%%%%%%%%%%%%%%%%%%%%%%%%%%%%%%%%%%%%%%%%%%%%%%%%%%%%%%%%

% ------------- DIRECT, ADJOINT, AND LINEARIZED PROBLEM DEFINITION ------------%
%
SOLVER= NEMO_NAVIER_STOKES
MATH_PROBLEM= DIRECT
RESTART_SOL= NO
AXISYMMETRIC= YES

% ----------- COMPRESSIBLE AND INCOMPRESSIBLE FREE-STREAM DEFINITION ----------%
%
MACH_NUMBER=8.98
AOA= 0.0
SIDESLIP_ANGLE= 0.0
FREESTREAM_PRESSURE= 476
FREESTREAM_TEMPERATURE= 901
FREESTREAM_TEMPERATURE_VE= 901
INIT_OPTION=TD_CONDITIONS

% ---- NONEQUILIBRIUM GAS, IDEAL GAS, POLYTROPIC, VAN DER WAALS AND PENG ROBINSON CONSTANTS -------%
%
FLUID_MODEL= SU2_NONEQ
GAS_MODEL= AIR-5
GAS_COMPOSITION= (0.75430935, 0.00713, 0.01026, 0.00000065, 0.2283)
TRANSPORT_COEFF_MODEL= GUPTA-YOS

% --------------------------- THERMAL CONDUCTIVITY MODEL ----------------------%
%
% Laminar Conductivity model (CONSTANT_CONDUCTIVITY, CONSTANT_PRANDTL,
% POLYNOMIAL_CONDUCTIVITY, FLAMELET).
CONDUCTIVITY_MODEL= CONSTANT_PRANDTL
%
% Molecular Thermal Conductivity that would be constant (0.0257 by default)
THERMAL_CONDUCTIVITY_CONSTANT= 0.0257
%
% Laminar Prandtl number (0.72 (air), only for CONSTANT_PRANDTL)
PRANDTL_LAM= 0.72

% -------------------- BOUNDARY CONDITION DEFINITION --------------------------%
%
MARKER_ISOTHERMAL=(airfoil, 300.0)
CATALYTIC_WALL= (airfoil)
CATALYTIC_EFFICIENCY= 1
SUPERCATALYTIC_WALL= YES
SUPERCATALYTIC_WALL_COMPOSITION= (0.75430935, 0.00713, 0.01026, 0.00000065, 0.2283)
MARKER_FAR= (farfield, exit)
MARKER_SYM= (symm)
MARKER_PLOTTING= (airfoil)
MARKER_MONITORING= (airfoil)

% ------------- COMMON PARAMETERS DEFINING THE NUMERICAL METHOD ---------------%
%
NUM_METHOD_GRAD= WEIGHTED_LEAST_SQUARES
CFL_NUMBER= 0.0080
ITER= 100000
LINEAR_SOLVER= BCGSTAB
LINEAR_SOLVER_ERROR= 1E-6
LINEAR_SOLVER_ITER= 5

% -----------------------------------------------------------------------%
%
CONV_NUM_METHOD_FLOW= AUSM
MUSCL_FLOW= YES
SLOPE_LIMITER_FLOW= VENKATAKRISHNAN
VENKAT_LIMITER_COEFF= 0.05
TIME_DISCRE_FLOW= EULER_IMPLICIT

% --------------------------- CONVERGENCE PARAMETERS --------------------------%
%
CONV_RESIDUAL_MINVAL= -100
CONV_STARTITER= 10

% ------------------------- INPUT/OUTPUT INFORMATION --------------------------%
%
MESH_FILENAME= visc_cyl.su2
MESH_FORMAT= SU2
SOLUTION_FILENAME= restart_flow_gy.dat 
RESTART_FILENAME= restart_flow_gy.dat 
TABULAR_FORMAT= TECPLOT
CONV_FILENAME= convergence
VOLUME_FILENAME= soln_volume
SURFACE_FILENAME= soln_surface     
OUTPUT_WRT_FREQ= 500
SCREEN_OUTPUT= (INNER_ITER, RMS_DENSITY_0, RMS_DENSITY_1, RMS_DENSITY_2, RMS_DENSITY_3, RMS_DENSITY_4, RMS_DENSITY_5, RMS_DENSITY_6, RMS_ENERGY, RMS_ENERGY_VE, LIFT, DRAG, TOTAL_HEATFLUX